<additional xmlns:xsi="http://www.w3.org/2001/XMLSchema-instance" xsi:noNamespaceSchemaLocation="http://sumo.dlr.de/xsd/additional_file.xsd">
    <e1Detector file="e1output.xml" freq="1" friendlyPos="x" id="e1det_-232386629#1_0" lane="-232386629#1_0" pos="0.1" />
    <e1Detector file="e1output.xml" freq="1" friendlyPos="x" id="e1det_232386629#0_0" lane="232386629#0_0" pos="597.8" />
    <e1Detector file="e1output.xml" freq="1" friendlyPos="x" id="e1det_527604145#24_0" lane="527604145#24_0" pos="419.5" />
    <e1Detector file="e1output.xml" freq="1" friendlyPos="x" id="e1det_527604145#24_1" lane="527604145#24_1" pos="419.5" />
    <e1Detector file="e1output.xml" freq="1" friendlyPos="x" id="e1det_527604145#24_2" lane="527604145#24_2" pos="419.5" />
    <e1Detector file="e1output.xml" freq="1" friendlyPos="x" id="e1det_-232386629#10_0" lane="-232386629#10_0" pos="1.0899999999999999" />
    <e1Detector file="e1output.xml" freq="1" friendlyPos="x" id="e1det_232386629#8_0" lane="232386629#8_0" pos="0.1" />
    <e1Detector file="e1output.xml" freq="1" friendlyPos="x" id="e1det_268840712#1_0" lane="268840712#1_0" pos="105.65" />
    <e1Detector file="e1output.xml" freq="1" friendlyPos="x" id="e1det_268840712#1_1" lane="268840712#1_1" pos="105.65" />
    <e1Detector file="e1output.xml" freq="1" friendlyPos="x" id="e1det_334971324#11_0" lane="334971324#11_0" pos="414.98999999999995" />
    <e1Detector file="e1output.xml" freq="1" friendlyPos="x" id="e1det_334971324#11_1" lane="334971324#11_1" pos="414.98999999999995" />
    <e1Detector file="e1output.xml" freq="1" friendlyPos="x" id="e1det_334971324#11_2" lane="334971324#11_2" pos="414.98999999999995" />
    <e1Detector file="e1output.xml" freq="1" friendlyPos="x" id="e1det_334971324#11_3" lane="334971324#11_3" pos="414.98999999999995" />
    <e1Detector file="e1output.xml" freq="1" friendlyPos="x" id="e1det_-232386629#13_0" lane="-232386629#13_0" pos="106.39" />
    <e1Detector file="e1output.xml" freq="1" friendlyPos="x" id="e1det_-457344957#0_0" lane="-457344957#0_0" pos="431.84" />
    <e1Detector file="e1output.xml" freq="1" friendlyPos="x" id="e1det_232386629#12_0" lane="232386629#12_0" pos="282.75" />
    <e1Detector file="e1output.xml" freq="1" friendlyPos="x" id="e1det_279771733#1_0" lane="279771733#1_0" pos="247.32" />
    <e1Detector file="e1output.xml" freq="1" friendlyPos="x" id="e1det_-232386629#2_0" lane="-232386629#2_0" pos="385.07" />
    <e1Detector file="e1output.xml" freq="1" friendlyPos="x" id="e1det_232386629#1_0" lane="232386629#1_0" pos="0.1" />
    <e1Detector file="e1output.xml" freq="1" friendlyPos="x" id="e1det_569338307#1_0" lane="569338307#1_0" pos="35.33" />
    <e1Detector file="e1output.xml" freq="1" friendlyPos="x" id="e1det_569338307#1_1" lane="569338307#1_1" pos="35.33" />
    <e1Detector file="e1output.xml" freq="1" friendlyPos="x" id="e1det_569338307#1_2" lane="569338307#1_2" pos="35.33" />
    <e1Detector file="e1output.xml" freq="1" friendlyPos="x" id="e1det_-232386629#5_0" lane="-232386629#5_0" pos="492.89" />
    <e1Detector file="e1output.xml" freq="1" friendlyPos="x" id="e1det_232386629#3_0" lane="232386629#3_0" pos="304.32" />
    <e1Detector file="e1output.xml" freq="1" friendlyPos="x" id="e1det_457950331#0_0" lane="457950331#0_0" pos="429.92999999999995" />
    <e1Detector file="e1output.xml" freq="1" friendlyPos="x" id="e1det_457950331#0_1" lane="457950331#0_1" pos="429.92999999999995" />
    <e1Detector file="e1output.xml" freq="1" friendlyPos="x" id="e1det_457950331#0_2" lane="457950331#0_2" pos="429.92999999999995" />
    <e1Detector file="e1output.xml" freq="1" friendlyPos="x" id="e1det_463727048#0_0" lane="463727048#0_0" pos="203.59" />
    <e1Detector file="e1output.xml" freq="1" friendlyPos="x" id="e1det_463727048#0_1" lane="463727048#0_1" pos="203.59" />
    <e1Detector file="e1output.xml" freq="1" friendlyPos="x" id="e1det_463727048#0_2" lane="463727048#0_2" pos="203.59" />
    <e1Detector file="e1output.xml" freq="1" friendlyPos="x" id="e1det_-232406107#0_0" lane="-232406107#0_0" pos="313.58" />
    <e1Detector file="e1output.xml" freq="1" friendlyPos="x" id="e1det_-259317430#10_0" lane="-259317430#10_0" pos="138.11" />
    <e1Detector file="e1output.xml" freq="1" friendlyPos="x" id="e1det_259317430#9_0" lane="259317430#9_0" pos="286.58" />
    <e1Detector file="e1output.xml" freq="1" friendlyPos="x" id="e1det_457344957#3_0" lane="457344957#3_0" pos="334.71999999999997" />
    <e1Detector file="e1output.xml" freq="1" friendlyPos="x" id="e1det_-232406107#3_0" lane="-232406107#3_0" pos="141.91" />
    <e1Detector file="e1output.xml" freq="1" friendlyPos="x" id="e1det_232406107#1_0" lane="232406107#1_0" pos="144.93" />
    <e1Detector file="e1output.xml" freq="1" friendlyPos="x" id="e1det_52244438#3_0" lane="52244438#3_0" pos="301.48999999999995" />
    <e1Detector file="e1output.xml" freq="1" friendlyPos="x" id="e1det_52244438#3_1" lane="52244438#3_1" pos="301.48999999999995" />
    <e1Detector file="e1output.xml" freq="1" friendlyPos="x" id="e1det_768157882#9_0" lane="768157882#9_0" pos="147.94" />
    <e1Detector file="e1output.xml" freq="1" friendlyPos="x" id="e1det_768157882#9_1" lane="768157882#9_1" pos="147.94" />
    <e1Detector file="e1output.xml" freq="1" friendlyPos="x" id="e1det_-232406107#8_0" lane="-232406107#8_0" pos="250.27" />
    <e1Detector file="e1output.xml" freq="1" friendlyPos="x" id="e1det_182451957#10_0" lane="182451957#10_0" pos="303.82" />
    <e1Detector file="e1output.xml" freq="1" friendlyPos="x" id="e1det_182451957#10_1" lane="182451957#10_1" pos="303.82" />
    <e1Detector file="e1output.xml" freq="1" friendlyPos="x" id="e1det_182451957#10_2" lane="182451957#10_2" pos="303.82" />
    <e1Detector file="e1output.xml" freq="1" friendlyPos="x" id="e1det_232406107#6_0" lane="232406107#6_0" pos="23.24" />
    <e1Detector file="e1output.xml" freq="1" friendlyPos="x" id="e1det_527604149#11_0" lane="527604149#11_0" pos="284.78999999999996" />
    <e1Detector file="e1output.xml" freq="1" friendlyPos="x" id="e1det_527604149#11_1" lane="527604149#11_1" pos="284.78999999999996" />
    <e1Detector file="e1output.xml" freq="1" friendlyPos="x" id="e1det_527604149#11_2" lane="527604149#11_2" pos="284.78999999999996" />
    <e1Detector file="e1output.xml" freq="1" friendlyPos="x" id="e1det_-255201484#1_0" lane="-255201484#1_0" pos="430.60999999999996" />
    <e1Detector file="e1output.xml" freq="1" friendlyPos="x" id="e1det_259317430#11_0" lane="259317430#11_0" pos="438.79999999999995" />
    <e1Detector file="e1output.xml" freq="1" friendlyPos="x" id="e1det_268840712#4_0" lane="268840712#4_0" pos="428.33" />
    <e1Detector file="e1output.xml" freq="1" friendlyPos="x" id="e1det_268840712#4_1" lane="268840712#4_1" pos="428.33" />
    <e1Detector file="e1output.xml" freq="1" friendlyPos="x" id="e1det_334971324#8_0" lane="334971324#8_0" pos="469.96" />
    <e1Detector file="e1output.xml" freq="1" friendlyPos="x" id="e1det_334971324#8_1" lane="334971324#8_1" pos="469.96" />
    <e1Detector file="e1output.xml" freq="1" friendlyPos="x" id="e1det_334971324#8_2" lane="334971324#8_2" pos="469.96" />
    <e1Detector file="e1output.xml" freq="1" friendlyPos="x" id="e1det_334971324#8_3" lane="334971324#8_3" pos="469.96" />
    <e1Detector file="e1output.xml" freq="1" friendlyPos="x" id="e1det_-255201484#5_0" lane="-255201484#5_0" pos="132.29" />
    <e1Detector file="e1output.xml" freq="1" friendlyPos="x" id="e1det_255201484#3_0" lane="255201484#3_0" pos="328.32" />
    <e1Detector file="e1output.xml" freq="1" friendlyPos="x" id="e1det_337335327#7_0" lane="337335327#7_0" pos="225.34" />
    <e1Detector file="e1output.xml" freq="1" friendlyPos="x" id="e1det_463727048#4_0" lane="463727048#4_0" pos="221.58" />
    <e1Detector file="e1output.xml" freq="1" friendlyPos="x" id="e1det_463727048#4_1" lane="463727048#4_1" pos="221.58" />
    <e1Detector file="e1output.xml" freq="1" friendlyPos="x" id="e1det_463727048#4_2" lane="463727048#4_2" pos="221.58" />
    <e1Detector file="e1output.xml" freq="1" friendlyPos="x" id="e1det_-255201484#9_0" lane="-255201484#9_0" pos="536.73" />
    <e1Detector file="e1output.xml" freq="1" friendlyPos="x" id="e1det_255201484#7_0" lane="255201484#7_0" pos="353.71" />
    <e1Detector file="e1output.xml" freq="1" friendlyPos="x" id="e1det_527604145#19_0" lane="527604145#19_0" pos="194.58" />
    <e1Detector file="e1output.xml" freq="1" friendlyPos="x" id="e1det_527604145#19_1" lane="527604145#19_1" pos="194.58" />
    <e1Detector file="e1output.xml" freq="1" friendlyPos="x" id="e1det_527604145#19_2" lane="527604145#19_2" pos="194.58" />
    <e1Detector file="e1output.xml" freq="1" friendlyPos="x" id="e1det_569338307#5_0" lane="569338307#5_0" pos="227.87" />
    <e1Detector file="e1output.xml" freq="1" friendlyPos="x" id="e1det_569338307#5_1" lane="569338307#5_1" pos="227.87" />
    <e1Detector file="e1output.xml" freq="1" friendlyPos="x" id="e1det_569338307#5_2" lane="569338307#5_2" pos="227.87" />
    <e1Detector file="e1output.xml" freq="1" friendlyPos="x" id="e1det_-457344957#2_0" lane="-457344957#2_0" pos="95.03" />
    <e1Detector file="e1output.xml" freq="1" friendlyPos="x" id="e1det_332097513#0_0" lane="332097513#0_0" pos="236.59" />
    <e1Detector file="e1output.xml" freq="1" friendlyPos="x" id="e1det_332097513#0_1" lane="332097513#0_1" pos="236.59" />
    <e1Detector file="e1output.xml" freq="1" friendlyPos="x" id="e1det_457344957#0_0" lane="457344957#0_0" pos="431.84" />
    <e1Detector file="e1output.xml" freq="1" friendlyPos="x" id="e1det_768157906#8_0" lane="768157906#8_0" pos="302.79999999999995" />
    <e1Detector file="e1output.xml" freq="1" friendlyPos="x" id="e1det_768157906#8_1" lane="768157906#8_1" pos="302.79999999999995" />
    <e1Detector file="e1output.xml" freq="1" friendlyPos="x" id="e1det_182451957#0_0" lane="182451957#0_0" pos="325.09" />
    <e1Detector file="e1output.xml" freq="1" friendlyPos="x" id="e1det_182451957#0_1" lane="182451957#0_1" pos="325.09" />
    <e1Detector file="e1output.xml" freq="1" friendlyPos="x" id="e1det_182451957#0_2" lane="182451957#0_2" pos="325.09" />
    <e1Detector file="e1output.xml" freq="1" friendlyPos="x" id="e1det_527604145#14_0" lane="527604145#14_0" pos="375.28" />
    <e1Detector file="e1output.xml" freq="1" friendlyPos="x" id="e1det_527604145#14_1" lane="527604145#14_1" pos="375.28" />
    <e1Detector file="e1output.xml" freq="1" friendlyPos="x" id="e1det_527604145#14_2" lane="527604145#14_2" pos="375.28" />
    <e1Detector file="e1output.xml" freq="1" friendlyPos="x" id="e1det_527604149#21_0" lane="527604149#21_0" pos="366.51" />
    <e1Detector file="e1output.xml" freq="1" friendlyPos="x" id="e1det_527604149#21_1" lane="527604149#21_1" pos="366.51" />
    <e1Detector file="e1output.xml" freq="1" friendlyPos="x" id="e1det_527604149#21_2" lane="527604149#21_2" pos="366.51" />
    <e1Detector file="e1output.xml" freq="1" friendlyPos="x" id="e1det_569338307#9_0" lane="569338307#9_0" pos="275.72999999999996" />
    <e1Detector file="e1output.xml" freq="1" friendlyPos="x" id="e1det_569338307#9_1" lane="569338307#9_1" pos="275.72999999999996" />
    <e1Detector file="e1output.xml" freq="1" friendlyPos="x" id="e1det_569338307#9_2" lane="569338307#9_2" pos="275.72999999999996" />
    <e1Detector file="e1output.xml" freq="1" friendlyPos="x" id="e1det_182451957#4_0" lane="182451957#4_0" pos="228.36" />
    <e1Detector file="e1output.xml" freq="1" friendlyPos="x" id="e1det_182451957#4_1" lane="182451957#4_1" pos="228.36" />
    <e1Detector file="e1output.xml" freq="1" friendlyPos="x" id="e1det_182451957#4_2" lane="182451957#4_2" pos="228.36" />
    <e1Detector file="e1output.xml" freq="1" friendlyPos="x" id="e1det_337335327#2_0" lane="337335327#2_0" pos="378.12" />
    <e1Detector file="e1output.xml" freq="1" friendlyPos="x" id="e1det_418051108#1_0" lane="418051108#1_0" pos="316.14" />
    <e1Detector file="e1output.xml" freq="1" friendlyPos="x" id="e1det_418051108#1_1" lane="418051108#1_1" pos="316.14" />
    <e1Detector file="e1output.xml" freq="1" friendlyPos="x" id="e1det_418051108#1_2" lane="418051108#1_2" pos="316.14" />
    <e1Detector file="e1output.xml" freq="1" friendlyPos="x" id="e1det_418051108#1_3" lane="418051108#1_3" pos="316.14" />
    <e1Detector file="e1output.xml" freq="1" friendlyPos="x" id="e1det_527604149#17_0" lane="527604149#17_0" pos="202.33" />
    <e1Detector file="e1output.xml" freq="1" friendlyPos="x" id="e1det_527604149#17_1" lane="527604149#17_1" pos="202.33" />
    <e1Detector file="e1output.xml" freq="1" friendlyPos="x" id="e1det_527604149#17_2" lane="527604149#17_2" pos="202.33" />
    <e1Detector file="e1output.xml" freq="1" friendlyPos="x" id="e1det_182451957#7_0" lane="182451957#7_0" pos="258.21" />
    <e1Detector file="e1output.xml" freq="1" friendlyPos="x" id="e1det_182451957#7_1" lane="182451957#7_1" pos="258.21" />
    <e1Detector file="e1output.xml" freq="1" friendlyPos="x" id="e1det_182451957#7_2" lane="182451957#7_2" pos="258.21" />
    <e1Detector file="e1output.xml" freq="1" friendlyPos="x" id="e1det_334971324#3_0" lane="334971324#3_0" pos="379.62" />
    <e1Detector file="e1output.xml" freq="1" friendlyPos="x" id="e1det_334971324#3_1" lane="334971324#3_1" pos="379.62" />
    <e1Detector file="e1output.xml" freq="1" friendlyPos="x" id="e1det_334971324#3_2" lane="334971324#3_2" pos="379.62" />
    <e1Detector file="e1output.xml" freq="1" friendlyPos="x" id="e1det_334971324#3_3" lane="334971324#3_3" pos="379.62" />
    <e1Detector file="e1output.xml" freq="1" friendlyPos="x" id="e1det_463727046#1_0" lane="463727046#1_0" pos="347.47999999999996" />
    <e1Detector file="e1output.xml" freq="1" friendlyPos="x" id="e1det_463727046#1_1" lane="463727046#1_1" pos="347.47999999999996" />
    <e1Detector file="e1output.xml" freq="1" friendlyPos="x" id="e1det_527604149#13_0" lane="527604149#13_0" pos="248.46" />
    <e1Detector file="e1output.xml" freq="1" friendlyPos="x" id="e1det_527604149#13_1" lane="527604149#13_1" pos="248.46" />
    <e1Detector file="e1output.xml" freq="1" friendlyPos="x" id="e1det_527604149#13_2" lane="527604149#13_2" pos="248.46" />
    <e1Detector file="e1output.xml" freq="1" friendlyPos="x" id="e1det_268840712#2_0" lane="268840712#2_0" pos="415.26" />
    <e1Detector file="e1output.xml" freq="1" friendlyPos="x" id="e1det_268840712#2_1" lane="268840712#2_1" pos="415.26" />
    <e1Detector file="e1output.xml" freq="1" friendlyPos="x" id="e1det_289320378#2_0" lane="289320378#2_0" pos="489.97999999999996" />
    <e1Detector file="e1output.xml" freq="1" friendlyPos="x" id="e1det_289320378#2_1" lane="289320378#2_1" pos="489.97999999999996" />
    <e1Detector file="e1output.xml" freq="1" friendlyPos="x" id="e1det_334971324#9_0" lane="334971324#9_0" pos="428.16999999999996" />
    <e1Detector file="e1output.xml" freq="1" friendlyPos="x" id="e1det_334971324#9_1" lane="334971324#9_1" pos="428.16999999999996" />
    <e1Detector file="e1output.xml" freq="1" friendlyPos="x" id="e1det_334971324#9_2" lane="334971324#9_2" pos="428.16999999999996" />
    <e1Detector file="e1output.xml" freq="1" friendlyPos="x" id="e1det_334971324#9_3" lane="334971324#9_3" pos="428.16999999999996" />
    <e1Detector file="e1output.xml" freq="1" friendlyPos="x" id="e1det_768157906#10_0" lane="768157906#10_0" pos="110.32000000000001" />
    <e1Detector file="e1output.xml" freq="1" friendlyPos="x" id="e1det_768157906#10_1" lane="768157906#10_1" pos="110.32000000000001" />
    <e1Detector file="e1output.xml" freq="1" friendlyPos="x" id="e1det_268840712#7_0" lane="268840712#7_0" pos="273.34" />
    <e1Detector file="e1output.xml" freq="1" friendlyPos="x" id="e1det_268840712#7_1" lane="268840712#7_1" pos="273.34" />
    <e1Detector file="e1output.xml" freq="1" friendlyPos="x" id="e1det_334971324#6_0" lane="334971324#6_0" pos="67.68" />
    <e1Detector file="e1output.xml" freq="1" friendlyPos="x" id="e1det_334971324#6_1" lane="334971324#6_1" pos="67.68" />
    <e1Detector file="e1output.xml" freq="1" friendlyPos="x" id="e1det_334971324#6_2" lane="334971324#6_2" pos="67.68" />
    <e1Detector file="e1output.xml" freq="1" friendlyPos="x" id="e1det_334971324#6_3" lane="334971324#6_3" pos="67.68" />
    <e1Detector file="e1output.xml" freq="1" friendlyPos="x" id="e1det_463727047#2_0" lane="463727047#2_0" pos="121.60000000000001" />
    <e1Detector file="e1output.xml" freq="1" friendlyPos="x" id="e1det_463727047#2_1" lane="463727047#2_1" pos="121.60000000000001" />
    <e1Detector file="e1output.xml" freq="1" friendlyPos="x" id="e1det_768157882#12_0" lane="768157882#12_0" pos="168.83" />
    <e1Detector file="e1output.xml" freq="1" friendlyPos="x" id="e1det_768157882#12_1" lane="768157882#12_1" pos="168.83" />
    <e1Detector file="e1output.xml" freq="1" friendlyPos="x" id="e1det_289320392#1_0" lane="289320392#1_0" pos="537.65" />
    <e1Detector file="e1output.xml" freq="1" friendlyPos="x" id="e1det_289320392#1_1" lane="289320392#1_1" pos="537.65" />
    <e1Detector file="e1output.xml" freq="1" friendlyPos="x" id="e1det_527604137#1_0" lane="527604137#1_0" pos="701.64" />
    <e1Detector file="e1output.xml" freq="1" friendlyPos="x" id="e1det_527604137#1_1" lane="527604137#1_1" pos="701.64" />
    <e1Detector file="e1output.xml" freq="1" friendlyPos="x" id="e1det_527604145#16_0" lane="527604145#16_0" pos="275.73999999999995" />
    <e1Detector file="e1output.xml" freq="1" friendlyPos="x" id="e1det_527604145#16_1" lane="527604145#16_1" pos="275.73999999999995" />
    <e1Detector file="e1output.xml" freq="1" friendlyPos="x" id="e1det_527604145#16_2" lane="527604145#16_2" pos="275.73999999999995" />
    <e1Detector file="e1output.xml" freq="1" friendlyPos="x" id="e1det_569338307#7_0" lane="569338307#7_0" pos="259.52" />
    <e1Detector file="e1output.xml" freq="1" friendlyPos="x" id="e1det_569338307#7_1" lane="569338307#7_1" pos="259.52" />
    <e1Detector file="e1output.xml" freq="1" friendlyPos="x" id="e1det_569338307#7_2" lane="569338307#7_2" pos="259.52" />
    <e1Detector file="e1output.xml" freq="1" friendlyPos="x" id="e1det_289320392#3_0" lane="289320392#3_0" pos="701.39" />
    <e1Detector file="e1output.xml" freq="1" friendlyPos="x" id="e1det_289320392#3_1" lane="289320392#3_1" pos="701.39" />
    <e1Detector file="e1output.xml" freq="1" friendlyPos="x" id="e1det_337335327#4_0" lane="337335327#4_0" pos="316.21" />
    <e1Detector file="e1output.xml" freq="1" friendlyPos="x" id="e1det_463727048#5_0" lane="463727048#5_0" pos="459.65999999999997" />
    <e1Detector file="e1output.xml" freq="1" friendlyPos="x" id="e1det_463727048#5_1" lane="463727048#5_1" pos="459.65999999999997" />
    <e1Detector file="e1output.xml" freq="1" friendlyPos="x" id="e1det_463727048#5_2" lane="463727048#5_2" pos="459.65999999999997" />
    <e1Detector file="e1output.xml" freq="1" friendlyPos="x" id="e1det_768157900#2_0" lane="768157900#2_0" pos="391.28" />
    <e1Detector file="e1output.xml" freq="1" friendlyPos="x" id="e1det_768157900#2_1" lane="768157900#2_1" pos="391.28" />
    <e1Detector file="e1output.xml" freq="1" friendlyPos="x" id="e1det_337335325#0_0" lane="337335325#0_0" pos="516.02" />
    <e1Detector file="e1output.xml" freq="1" friendlyPos="x" id="e1det_337335325#0_1" lane="337335325#0_1" pos="516.02" />
    <e1Detector file="e1output.xml" freq="1" friendlyPos="x" id="e1det_527604145#22_0" lane="527604145#22_0" pos="277.57" />
    <e1Detector file="e1output.xml" freq="1" friendlyPos="x" id="e1det_527604145#22_1" lane="527604145#22_1" pos="277.57" />
    <e1Detector file="e1output.xml" freq="1" friendlyPos="x" id="e1det_527604145#22_2" lane="527604145#22_2" pos="277.57" />
    <e1Detector file="e1output.xml" freq="1" friendlyPos="x" id="e1det_569338307#2_0" lane="569338307#2_0" pos="419.45" />
    <e1Detector file="e1output.xml" freq="1" friendlyPos="x" id="e1det_569338307#2_1" lane="569338307#2_1" pos="419.45" />
    <e1Detector file="e1output.xml" freq="1" friendlyPos="x" id="e1det_569338307#2_2" lane="569338307#2_2" pos="419.45" />
    <e1Detector file="e1output.xml" freq="1" friendlyPos="x" id="e1det_768157896#3_0" lane="768157896#3_0" pos="319.2" />
    <e1Detector file="e1output.xml" freq="1" friendlyPos="x" id="e1det_768157896#3_1" lane="768157896#3_1" pos="319.2" />
    <e1Detector file="e1output.xml" freq="1" friendlyPos="x" id="e1det_337335325#2_0" lane="337335325#2_0" pos="700.78" />
    <e1Detector file="e1output.xml" freq="1" friendlyPos="x" id="e1det_337335325#2_1" lane="337335325#2_1" pos="700.78" />
    <e1Detector file="e1output.xml" freq="1" friendlyPos="x" id="e1det_337335327#10_0" lane="337335327#10_0" pos="188.44" />
    <e1Detector file="e1output.xml" freq="1" friendlyPos="x" id="e1det_463727048#1_0" lane="463727048#1_0" pos="430.15999999999997" />
    <e1Detector file="e1output.xml" freq="1" friendlyPos="x" id="e1det_463727048#1_1" lane="463727048#1_1" pos="430.15999999999997" />
    <e1Detector file="e1output.xml" freq="1" friendlyPos="x" id="e1det_463727048#1_2" lane="463727048#1_2" pos="430.15999999999997" />
    <e1Detector file="e1output.xml" freq="1" friendlyPos="x" id="e1det_768157916#2_0" lane="768157916#2_0" pos="327.32" />
    <e1Detector file="e1output.xml" freq="1" friendlyPos="x" id="e1det_768157916#2_1" lane="768157916#2_1" pos="327.32" />
</additional>